/*--------------------------------*- C++ -*----------------------------------*\
| =========                 |                                                 |
| \\      /  F ield         | OpenFOAM: The Open Source CFD Toolbox           |
|  \\    /   O peration     | Version:  plus                                  |
|   \\  /    A nd           | Web:      www.OpenFOAM.org                      |
|    \\/     M anipulation  |                                                 |
\*---------------------------------------------------------------------------*/
FoamFile
{
    version     2.0;
    format      ascii;
    class       volScalarField;
    location    "0";
    object      alphat;
}
// * * * * * * * * * * * * * * * * * * * * * * * * * * * * * * * * * * * * * //

dimensions      [1 -1 -1 0 0 0 0];

internalField   uniform 3.5e-4;

boundaryField
{
    "wing.*"
    {
        type            compressible::alphatWallFunction;
        value           $internalField;
    }
    "tail.*"
    {
        type            compressible::alphatWallFunction;
        value           $internalField;
    }
    body
    {
        type            compressible::alphatWallFunction;
        value           $internalField;
    }
    nacelle
    {
        type            compressible::alphatWallFunction;
        value           $internalField;
    }
    sym
    {
        type            symmetry;
    }
    inout
    {
        type            calculated;
        value           $internalField;        
    }
}


// ************************************************************************* //
