/*--------------------------------*- C++ -*----------------------------------*\
| =========                 |                                                 |
| \\      /  F ield         | OpenFOAM: The Open Source CFD Toolbox           |
|  \\    /   O peration     | Version:  plus                                  |
|   \\  /    A nd           | Web:      www.OpenFOAM.org                      |
|    \\/     M anipulation  |                                                 |
\*---------------------------------------------------------------------------*/
FoamFile
{
    version     2.0;
    format      ascii;
    class       volScalarField;
    location    "0";
    object      p;
}
// * * * * * * * * * * * * * * * * * * * * * * * * * * * * * * * * * * * * * //

dimensions      [1 -1 -2 0 0 0 0];

internalField   uniform 101325;

boundaryField
{
    "wing.*"
    {
        type            zeroGradient;
    }
    "tail.*"
    {
        type            zeroGradient;
    }
    body
    {
        type            zeroGradient;
    }
    nacelle
    {
        type            zeroGradient;
    }
    sym
    {
        type            symmetry;
    }
    inout
    {
        type            outletInlet;
        outletValue      $internalField;
        value           $internalField;
    }
}


// ************************************************************************* //
