/*--------------------------------*- C++ -*----------------------------------*\
| =========                 |                                                 |
| \\      /  F ield         | OpenFOAM: The Open Source CFD Toolbox           |
|  \\    /   O peration     | Version:  v1812                                 |
|   \\  /    A nd           | Web:      www.OpenFOAM.com                      |
|    \\/     M anipulation  |                                                 |
\*---------------------------------------------------------------------------*/
FoamFile
{
    version     2.0;
    format      ascii;
    class       dictionary;
    location    "system";
    object      fvSchemes;
}
// * * * * * * * * * * * * * * * * * * * * * * * * * * * * * * * * * * * * * //

ddtSchemes
{
    default         backward;
}

gradSchemes
{
    default         Gauss linear;
}

divSchemes
{
    default                                             none;
    div(phi,U)                                          bounded Gauss linearUpwindV grad(U);
    div(phi,T)                                          bounded Gauss upwind;
    div(phi,nuTilda)                                    bounded Gauss upwind;
    div(phi,k)                                          bounded Gauss upwind;
    div(phi,omega)                                      bounded Gauss upwind;
    div(phi,epsilon)                                    bounded Gauss upwind;
    div((nuEff*dev2(T(grad(U)))))                       Gauss linear;
    div(pc)                                             bounded Gauss upwind;
}

laplacianSchemes
{
    default         Gauss linear corrected;
}

interpolationSchemes
{
    default         linear;
}

snGradSchemes
{
    default         corrected;
}

wallDist
{
    method                                              meshWave;
}

// ************************************************************************* //
