/*--------------------------------*- C++ -*---------------------------------*\ 
| ========                 |                                                 | 
| \      /  F ield         | OpenFOAM: The Open Source CFD Toolbox           | 
|  \    /   O peration     | Version:  v1812                                 | 
|   \  /    A nd           | Web:      www.OpenFOAM.com                      | 
|    \/     M anipulation  |                                                 | 
\*--------------------------------------------------------------------------*/ 
FoamFile
{
    version     2.0;
    format      ascii;
    class       dictionary;
    location    "system";
    object      fvSolution;
}
// * * * * * * * * * * * * * * * * * * * * * * * * * * * * * * * * * * * * * //

SIMPLE
{
    rhoUpperBound                      10.0;
    rhoLowerBound                      0.2;
    pLowerBound                        20000;
    transonic                          true;
    UUpperBound                        800;
    nNonOrthogonalCorrectors           0;
    ULowerBound                        -800;
    eUpperBound                        500000;
    eLowerBound                        100000;
    pUpperBound                        1000000;
    residualControl
    {
        U                              1.000000e-20;
        nuTilda                        1.000000e-20;
        p                              1.000000e-20;
        e                              1.000000e-20;
        h                              1.000000e-20;
        p_rgh                          1.000000e-20;
        k                              1.000000e-20;
        omega                          1.000000e-20;
        epsilon                        1.000000e-20;
        T                              1.000000e-20;
        rho                            1.000000e-20;
    }
}

PISO
{
    pRefCell                           0;
    rDeltaTSmoothingCoeff              0.5;
    nCorrectors                        2;
    pRefValue                          0;
    maxDeltaT                          0.5;
    nNonOrthogonalCorrectors           0;
    maxCo                              0.5;
}

solvers
{
    "(p|p_rgh|G)Final"
    {
        relTol                         0;
        nPreSweeps                     0;
        nCellsInCoarsestLevel          10;
        agglomerator                   faceAreaPair;
        maxIter                        500;
        solver                         GAMG;
        tolerance                      1e-06;
        smoother                       GaussSeidel;
        cacheAgglomeration             true;
        mergeLevels                    1;
        nPostSweeps                    2;
    }
    Phi
    {
        relTol                         1e-2;
        maxIter                        50;
        agglomerator                   faceAreaPair;
        nCellsInCoarsestLevel          10;
        solver                         GAMG;
        cacheAgglomeration             true;
        mergeLevels                    1;
        smoother                       DIC;
        tolerance                      1e-6;
    }
    "(U|T|e|h|nuTilda|k|omega|epsilon|ReThetat|gammaInt)Final"
    {
        relTol                         0;
        nSweeps                        1;
        solver                         smoothSolver;
        smoother                       GaussSeidel;
        maxIter                        500;
        tolerance                      1e-06;
    }
    "(U|T|e|h|nuTilda|k|omega|epsilon|ReThetat|gammaInt)"
    {
        relTol                         0.1;
        nSweeps                        1;
        solver                         smoothSolver;
        smoother                       GaussSeidel;
        maxIter                        10;
        tolerance                      1e-20;
    }
    "(p|p_rgh|G)"
    {
        relTol                         0.1;
        nPreSweeps                     0;
        nCellsInCoarsestLevel          10;
        agglomerator                   faceAreaPair;
        maxIter                        10;
        solver                         GAMG;
        tolerance                      1e-20;
        smoother                       GaussSeidel;
        cacheAgglomeration             true;
        mergeLevels                    1;
        nPostSweeps                    2;
    }
}

relaxationFactors
{
    fields
    {
        p                              1.00;
        rho                            1.00;
    }
    equations
    {
        nuTilda                        0.80;
        p                              1.00;
        U                              0.80;
        e                              0.80;
    }

}
potentialFlow
{
    nNonOrthogonalCorrectors           20;
    PhiRefCell                         0;
    PhiRefValue                        0;
}

stressAnalysis
{
    compactNormalStress                yes;
    nCorrectors                        1;
    D                                  1e-20;
}

// * * * * * * * * * * * * * * * * * * * * * * * * * * * * * * * * * * * * * //
