/*--------------------------------*- C++ -*----------------------------------*\ 
| =========                 |                                                 |
| \\      /  F ield         | OpenFOAM: The Open Source CFD Toolbox           |
|  \\    /   O peration     | Version:  2.4.x                                 |
|   \\  /    A nd           | Web:      www.OpenFOAM.org                      |
|    \\/     M anipulation  |                                                 |
\*---------------------------------------------------------------------------*/
FoamFile
{
    version 2.0;
    format ascii;
    class dictionary;
    location system;
    object snappyHexMeshDict;
}

    castellatedMesh true;
    snap true;
    addLayers false;
    geometry
    {
        dpw4.stl
        {
            type triSurfaceMesh;
            regions
            {
               BODY  {name body; }
               WINGPS {name wingps; }
               WINGSS   {name wingss; }
               WINGTIP   {name wingtip; }
               WINGTIPTE   {name wingtipte; }
               WINGTE   {name wingte; }
               TAILPS {name tailps; }
               TAILSS   {name tailss; }
               TAILTIP   {name tailtip; }
               TAILTIPTE   {name tailtipte; }
               TAILTE   {name tailte; }
            }
        }
        /*
        box
        {
            type searchableBox;
            min (-0.5 0.0 0);
            max (2.0 0.4 0.5);
            name refinedBox;
        }
        box1
        {
            type searchableBox;
            min (0.84 0.0 0);
            max (1.5 0.3 0.37);
            name refinedBox1;
        }
        */

    }

    castellatedMeshControls
    {
        features
        (
        
        {
            file "dpw4.eMesh";
            level 8;
        }

        {
            file "WINGPS_line.eMesh";
            level 11;
        }

        {
            file "WINGSS_line.eMesh";
            level 11;
        }

        {
            file "TAILPS_line.eMesh";
            level 11;
        }

        {
            file "TAILSS_line.eMesh";
            level 11;
        }
        

        );
        refinementSurfaces
        {
            dpw4.stl
            {
                level ( 1 1 );
                regions
                {
                    body { level ( 9 9 ); patchInfo { type wall; } }
                    wingps { level ( 9 9 ); patchInfo { type wall; } }
                    wingss { level ( 9 9 ); patchInfo { type wall; } }
                    wingtip { level ( 10 10 ); patchInfo { type wall; } }
                    wigntipte { level ( 11 11 ); patchInfo { type wall; } }
                    wingte { level ( 10 10 ); patchInfo { type wall; } }

                    tailps { level ( 8 8 ); patchInfo { type wall; } }
                    tailss { level ( 8 8 ); patchInfo { type wall; } }
                    tailtip { level ( 10 10 ); patchInfo { type wall; } }
                    tailtipte { level ( 11 11 ); patchInfo { type wall; } }
                    tailte { level (10 10); patchInfo { type wall; } }
                }
            }
            
        }

        refinementRegions
        {
            /*
            refinedBox
            {
                mode inside;
                levels ((3 3));
            }
            refinedBox1
            {
                mode inside;
                levels ((4 4));
            }
            */
        }

        locationInMesh ( -5 1 1 );
        maxLocalCells 100000;
        maxGlobalCells 2000000;
        minRefinementCells 0;
        nCellsBetweenLevels 5;
        resolveFeatureAngle 10;
        allowFreeStandingZoneFaces true;
        planarAngle 30;
        maxLoadUnbalance 0.10;
    }

    snapControls
    {
        nSolveIter 50;
        nSmoothPatch 3;
        tolerance 2.0;
        nRelaxIter 5;
        nFeatureSnapIter 10;
        implicitFeatureSnap false;
        explicitFeatureSnap true;
        multiRegionFeatureSnap true;
    }

    addLayersControls
    {
        layers
        {
            "BODY.*|WING.*|TAIL.*"
            {nSurfaceLayers 3;}
        }

        relativeSizes true;
        expansionRatio 1.3;
        finalLayerThickness 0.5;
        minThickness 0.001;
        nGrow 0;
        featureAngle 270;
        slipFeatureAngle 60;
        nRelaxIter 5;
        nSmoothSurfaceNormals 1;
        nSmoothNormals 3;
        nSmoothThickness 10;
        maxFaceThicknessRatio 0.5;
        maxThicknessToMedialRatio 0.3;
        minMedialAxisAngle 90;
        nBufferCellsNoExtrude 0;
        nLayerIter 50;
        nRelaxedIter 20;
        writeVTK false;
        noErrors false;
        layerRecovery 1;
        growZoneLayers false;
        projectGrownUp 0.0;
    }

    meshQualityControls
    {
        maxNonOrtho 60;
        maxBoundarySkewness 4;
        maxInternalSkewness 4;
        maxConcave 80;
        minFlatness 0.5;
        minVol 1.00E-13;
        minTetQuality 1e-30;
        minArea 1.0E-7;
        minTwist 0.05;
        minDeterminant 0.02;
        minFaceWeight 0.05;
        minVolRatio 0.01;
        minTriangleTwist -1;
        nSmoothScale 4;
        errorReduction 0.75;
        relaxed {maxNonOrtho 65; maxBoundarySkewness 5; minTetQuality -1e30; }
    }

    debug 0;
    mergeTolerance 1E-6;
    autoBlockMesh false;
