/*--------------------------------*- C++ -*----------------------------------*\
| =========                 |                                                 |
| \\      /  F ield         | OpenFOAM: The Open Source CFD Toolbox           |
|  \\    /   O peration     | Version:  v1706                                 |
|   \\  /    A nd           | Web:      www.OpenFOAM.com                      |
|    \\/     M anipulation  |                                                 |
\*---------------------------------------------------------------------------*/
FoamFile
{
    version     2.0;
    format      ascii;
    class       volScalarField;
    location    "0";
    object      nut;
}
// * * * * * * * * * * * * * * * * * * * * * * * * * * * * * * * * * * * * * //

dimensions      [0 -2 1 0 0 0 0];


internalField   uniform 0;

boundaryField
{
    bladeps
    {
        type            zeroGradient;
    }
    bladess
    {
        type            zeroGradient;
    }
    bladetip
    {
        type            zeroGradient;
    }
    bladefillet
    {
        type            zeroGradient;
    }
    hub
    {
        type            zeroGradient;
    }
    hubper1
    {
        type            cyclic;
    }
    hubper2
    {
        type            cyclic;
    }
    hubbot
    {
        type            zeroGradient;
    }
}


// ************************************************************************* //
