/*--------------------------------*- C++ -*----------------------------------*\
| =========                 |                                                 |
| \\      /  F ield         | OpenFOAM: The Open Source CFD Toolbox           |
|  \\    /   O peration     | Version:  v1706                                 |
|   \\  /    A nd           | Web:      www.OpenFOAM.com                      |
|    \\/     M anipulation  |                                                 |
\*---------------------------------------------------------------------------*/
FoamFile
{
    version     2.0;
    format      ascii;
    class       volVectorField;
    location    "0";
    object      D;
}
// * * * * * * * * * * * * * * * * * * * * * * * * * * * * * * * * * * * * * //

dimensions      [0 1 0 0 0 0 0];


internalField   uniform (0 0 0);

boundaryField
{
    bladeps
    {
        /*
        type            tractionDisplacement;
        traction        uniform (0 0 0);
        pressure        uniform 10000;
        value           uniform (0 0 0);
        */
        type            zeroGradient;
    }
    bladess
    {
        type            zeroGradient;
    }
    bladetip
    {
        type            zeroGradient;
    }
    bladefillet
    {
        type            zeroGradient;
    }
    hub
    {
        type            zeroGradient;
    }
    hubper1
    {
        type            cyclic;
    }
    hubper2
    {
        type            cyclic;
    }
    hubbot
    {
        type            fixedValue;
        value           uniform (0 0 0);
    }
}


// ************************************************************************* //
