/*--------------------------------*- C++ -*---------------------------------*\ 
| ========                 |                                                 | 
| \      /  F ield         | OpenFOAM: The Open Source CFD Toolbox           | 
|  \    /   O peration     | Version:  v1812                                 | 
|   \  /    A nd           | Web:      www.OpenFOAM.com                      | 
|    \/     M anipulation  |                                                 | 
\*--------------------------------------------------------------------------*/ 
FoamFile
{
    version     2.0;
    format      ascii;
    class       dictionary;
    location    "system";
    object      adjointDict;
}
// * * * * * * * * * * * * * * * * * * * * * * * * * * * * * * * * * * * * * //

flowOptions
{
    flowCondition          Incompressible;
    setFlowBCs             true;
    flowBCs                { }
    inletPatches           (inlet);
    outletPatches          (outlet);
    derivUInInfo           {stateName D; component 2; type rotRad;patchNames (top ); }
    userDefinedPatchInfo   { }
    userDefinedVolumeInfo  { userDefinedVolume0 { component 2; scale 1.0; centerZ 0.0; centerX 0.0; centerY 0.0; sizeX 10.0; stateName D; type box; sizeY 10.0; sizeZ 10.0; }  }
    referenceValues        (ARef 1.000000e+00 magURef 1.000000e+00 rhoRef 1.000000e+00 KSCoeff 8.000000e-07 pRef 0.000000e+00 LRef 1.000000e+00 );
    divDev2                true;
    useNKSolver            false;
    nkSegregatedTurb       false;
    nkSegregatedPhi        false;
    nkRelTol               1.000000e-08;
    nkAbsTol               1.000000e-12;
    nkSTol                 1.000000e-08;
    nkEWRTol0              0.300000;
    nkEWRTolMax            0.700000;
    nkPCLag                1;
    nkMaxIters             100;
    nkMaxFuncEvals         10000;
    nkASMOverlap           1;
    nkGlobalPCIters        0;
    nkLocalPCIters         1;
    nkPCFillLevel          0;
    nkJacMatReOrdering     rcm;
    nkGMRESMaxIters        500;
    nkGMRESRestart         500;
}

adjointOptions
{
    solveAdjoint           true;
    useColoring            true;
    normalizeResiduals     (DRes TRes);
    normalizeStates        (D T);
    nFFDPoints             0;
    correctWallDist        true;
    reduceResCon4JacMat    false;
    calcPCMat              true;
    fastPCMat              false;
    delTurbProd4PCMat      false;
    writeMatrices          false;
    adjGMRESMaxIters       500;
    adjGMRESRestart        500;
    adjASMOverlap          1;
    adjJacMatOrdering      state;
    adjJacMatReOrdering    rcm;
    adjGlobalPCIters       0;
    adjLocalPCIters        1;
    adjPCFillLevel         1;
    adjGMRESRelTol         1.000000e-06;
    adjGMRESAbsTol         1.000000e-16;
    minTolJac              1.000000e-14;
    maxTolJac              1.000000e+200;
    minTolPC               1.000000e-14;
    maxTolPC               1.000000e+200;
    stateResetTol          1.000000e-06;
    tractionBCMaxIter      100;
    epsDeriv               1.000000e-05;
    epsDerivFFD            1.000000e-04;
    epsDerivXv             1.000000e-07;
    epsDerivUIn            1.000000e-03;
    epsDerivVis            1.000000e-08;
    stateScaling           ( DScaling 1e-07 TScaling 300.0);
    residualScaling        ();
    maxResConLv4JacPCMat   ( DRes 2 TRes 2);
    adjDVTypes             (FFD);
}

actuatorDiskOptions
{
    actuatorActive         0;
    actuatorAdjustThrust   0;
    actuatorVolumeNames    ();
    actuatorThrustCoeff    ();
    actuatorPOverD         ();
    actuatorRotationDir    ();
}

objectiveFunctionOptions
{
    objFuncs               (VMS);
    objFuncGeoInfo         (  (allCells) );
    dragDir                (1.0000000000 0.0000000000 0.0000000000 );
    liftDir                (0.0000000000 0.0000000000 1.0000000000 );
    CofR                   (0.0000000000 0.0000000000 0.0000000000 );
    rotRad                 (0.0000000000 0.0000000000 -1680.0000000000 );
}

// * * * * * * * * * * * * * * * * * * * * * * * * * * * * * * * * * * * * * //
