/*--------------------------------*- C++ -*---------------------------------*\ 
| ========                 |                                                 | 
| \      /  F ield         | OpenFOAM: The Open Source CFD Toolbox           | 
|  \    /   O peration     | Version:  v1812                                 | 
|   \  /    A nd           | Web:      www.OpenFOAM.com                      | 
|    \/     M anipulation  |                                                 | 
\*--------------------------------------------------------------------------*/ 
FoamFile
{
    version     2.0;
    format      ascii;
    class       dictionary;
    location    "system";
    object      controlDict;
}
// * * * * * * * * * * * * * * * * * * * * * * * * * * * * * * * * * * * * * //


libs
(
    "libbuoyantPressureFvPatchScalarField.so" 
    "libDummyTurbulenceModelIncompressible.so" 
    "libSpalartAllmarasFv3Incompressible.so" 
);

application     solidDisplacementDAFoam;
startFrom       startTime;
startTime       0;
stopAt          endTime;
endTime         300;
deltaT          1;
writeControl    timeStep;
writeInterval   300;
purgeWrite      0;
writeFormat     ascii;
writePrecision  16;
writeCompression on;
timeFormat      general;
timePrecision   16;
runTimeModifiable true;

// * * * * * * * * * * * * * * * * * * * * * * * * * * * * * * * * * * * * * //
