/*--------------------------------*- C++ -*---------------------------------*\ 
| ========                 |                                                 | 
| \      /  F ield         | OpenFOAM: The Open Source CFD Toolbox           | 
|  \    /   O peration     | Version:  v1812                                 | 
|   \  /    A nd           | Web:      www.OpenFOAM.com                      | 
|    \/     M anipulation  |                                                 | 
\*--------------------------------------------------------------------------*/ 
FoamFile
{
    version     2.0;
    format      ascii;
    class       dictionary;
    location    "system";
    object      fvSolution;
}
// * * * * * * * * * * * * * * * * * * * * * * * * * * * * * * * * * * * * * //

SIMPLE
{
    consistent                         false;
    pLowerBound                        20000;
    eUpperBound                        800000;
    eLowerBound                        50000;
    hLowerBound                        50000;
    pUpperBound                        1000000;
    rhoUpperBound                      10.0;
    rhoLowerBound                      0.2;
    transonic                          false;
    UUpperBound                        1000;
    ULowerBound                        -1000;
    hUpperBound                        800000;
    nNonOrthogonalCorrectors           0;
    residualControl
    {
        U                              1.000000e-20;
        nuTilda                        1.000000e-20;
        p                              1.000000e-20;
        e                              1.000000e-20;
        h                              1.000000e-20;
        p_rgh                          1.000000e-20;
        k                              1.000000e-20;
        omega                          1.000000e-20;
        epsilon                        1.000000e-20;
        T                              1.000000e-20;
        rho                            1.000000e-20;
    }
}

PISO
{
    pRefCell                           0;
    rDeltaTSmoothingCoeff              0.5;
    nCorrectors                        2;
    pRefValue                          0;
    maxDeltaT                          0.5;
    nNonOrthogonalCorrectors           0;
    maxCo                              0.5;
}

solvers
{
    "(D|T)"
    {
        relTol                         0.9;
        solver                         GAMG;
        nCellsInCoarsestLevel          20;
        smoother                       GaussSeidel;
        maxIter                        1;
        tolerance                      1e-20;
    }
}

relaxationFactors
{
    fields
    {
        p                              0.30;
        p_rgh                          0.30;
        rho                            0.30;
    }
    equations
    {
        G                              0.70;
        epsilon                        0.70;
        U                              0.70;
        T                              0.70;
        nuTilda                        0.70;
        omega                          0.70;
        e                              0.70;
        h                              0.70;
        k                              0.70;
        gammaInt                       0.70;
        ReThetat                       0.70;
    }

}
potentialFlow
{
    nNonOrthogonalCorrectors           20;
    PhiRefCell                         0;
    PhiRefValue                        0;
}

stressAnalysis
{
    compactNormalStress                yes;
    nCorrectors                        1;
    D                                  1e-20;
}

// * * * * * * * * * * * * * * * * * * * * * * * * * * * * * * * * * * * * * //
